
**** 08/08/22 15:44:31 ******* PSpice 17.4.0 (Nov 2018) ******* ID# 0 ********

 ** Profile: "SCHEMATIC1-sim2"  [ c:\users\bdawg\onedrive\desktop\uc merced\summer 2022\engr 065 circuit theory\lab\lab9\2\lab9circui


 ****     CIRCUIT DESCRIPTION


******************************************************************************




** Creating circuit file "sim2.cir" 
** WARNING: THIS AUTOMATICALLY GENERATED FILE MAY BE OVERWRITTEN BY SUBSEQUENT SIMULATIONS

*Libraries: 
* Profile Libraries :
* Local Libraries :
* From [PSPICE NETLIST] section of C:\cdssetup\OrCAD_PSpice\17.4.0\PSpice.ini file:
.lib "nom.lib" 

*Analysis directives: 
.TRAN  0 2ms 0 5us 
.OPTIONS ADVCONV
.PROBE64 V(alias(*)) I(alias(*)) W(alias(*)) D(alias(*)) NOISE(alias(*)) 
.INC "..\SCHEMATIC1.net" 



**** INCLUDING SCHEMATIC1.net ****
* source LAB9CIRCUIT2
V_V1         N14432 0  
+PULSE 0 10 0 0 0 1ms 2ms
C_C1         0 N14439  .01u  TC=0,0 
R_R1         N14432 N14439  10k TC=0,0 
L_L1         0 N14439  10mh  

**** RESUMING sim2.cir ****
.END

**** 08/08/22 15:44:31 ******* PSpice 17.4.0 (Nov 2018) ******* ID# 0 ********

 ** Profile: "SCHEMATIC1-sim2"  [ c:\users\bdawg\onedrive\desktop\uc merced\summer 2022\engr 065 circuit theory\lab\lab9\2\lab9circui


 ****     INITIAL TRANSIENT SOLUTION       TEMPERATURE =   27.000 DEG C


******************************************************************************



 NODE   VOLTAGE     NODE   VOLTAGE     NODE   VOLTAGE     NODE   VOLTAGE


(N14432)    0.0000 (N14439)    0.0000 




    VOLTAGE SOURCE CURRENTS
    NAME         CURRENT

    V_V1         0.000E+00

    TOTAL POWER DISSIPATION   0.00E+00  WATTS



          JOB CONCLUDED

**** 08/08/22 15:44:31 ******* PSpice 17.4.0 (Nov 2018) ******* ID# 0 ********

 ** Profile: "SCHEMATIC1-sim2"  [ c:\users\bdawg\onedrive\desktop\uc merced\summer 2022\engr 065 circuit theory\lab\lab9\2\lab9circui


 ****     JOB STATISTICS SUMMARY


******************************************************************************



  Total job time (using Solver 1)   =         .02
