
**** 08/04/22 14:28:06 ******* PSpice 17.4.0 (Nov 2018) ******* ID# 0 ********

 ** Profile: "SCHEMATIC1-bias"  [ C:\Users\bdawg\OneDrive\Desktop\UC Merced\Summer 2022\ENGR 065 Circuit Theory\Lab\Lab8\lab8-pspicef


 ****     CIRCUIT DESCRIPTION


******************************************************************************




** Creating circuit file "bias.cir" 
** WARNING: THIS AUTOMATICALLY GENERATED FILE MAY BE OVERWRITTEN BY SUBSEQUENT SIMULATIONS

*Libraries: 
* Profile Libraries :
* Local Libraries :
* From [PSPICE NETLIST] section of C:\cdssetup\OrCAD_PSpice\17.4.0\PSpice.ini file:
.lib "nom.lib" 

*Analysis directives: 
.TRAN  0 1 0 5us 
.OPTIONS ADVCONV
.PROBE64 V(alias(*)) I(alias(*)) W(alias(*)) D(alias(*)) NOISE(alias(*)) 
.INC "..\SCHEMATIC1.net" 



**** INCLUDING SCHEMATIC1.net ****
* source LAB8
V_V1         0 N14411  
+PULSE 0 10 0 0 0 0 4ms
C_C1         N14418 0  1u  TC=0,0 
R_R1         N14411 N14418  1k TC=0,0 

**** RESUMING bias.cir ****
.END

**** 08/04/22 14:28:06 ******* PSpice 17.4.0 (Nov 2018) ******* ID# 0 ********

 ** Profile: "SCHEMATIC1-bias"  [ C:\Users\bdawg\OneDrive\Desktop\UC Merced\Summer 2022\ENGR 065 Circuit Theory\Lab\Lab8\lab8-pspicef


 ****     INITIAL TRANSIENT SOLUTION       TEMPERATURE =   27.000 DEG C


******************************************************************************



 NODE   VOLTAGE     NODE   VOLTAGE     NODE   VOLTAGE     NODE   VOLTAGE


(N14411)    0.0000 (N14418)    0.0000 




    VOLTAGE SOURCE CURRENTS
    NAME         CURRENT

    V_V1         0.000E+00

    TOTAL POWER DISSIPATION   0.00E+00  WATTS



          JOB CONCLUDED

**** 08/04/22 14:28:06 ******* PSpice 17.4.0 (Nov 2018) ******* ID# 0 ********

 ** Profile: "SCHEMATIC1-bias"  [ C:\Users\bdawg\OneDrive\Desktop\UC Merced\Summer 2022\ENGR 065 Circuit Theory\Lab\Lab8\lab8-pspicef


 ****     JOB STATISTICS SUMMARY


******************************************************************************



  License check-out time            =       11.53
  Total job time (using Solver 1)   =         .69
